/*--------------------------------*- C++ -*----------------------------------*\
  =========                 |
  \\      /  F ield         | OpenFOAM: The Open Source CFD Toolbox
   \\    /   O peration     | Website:  https://openfoam.org
    \\  /    A nd           | Version:  6
     \\/     M anipulation  |
\*---------------------------------------------------------------------------*/
FoamFile
{
    version     2.0;
    format      ascii;
    class       dictionary;
    object      snappyHexMeshDict;
}
// * * * * * * * * * * * * * * * * * * * * * * * * * * * * * * * * * * * * * //

// Which of the steps to run

castellatedMesh true;
snap true;
addLayers false;

geometry
{
    
    Wing.stl
    {
        type triSurfaceMesh;
        name Wing_wall;
    }
/*
    Endplate.stl
    {
        type triSurfaceMesh;
        name Endplate_wall;
    }

    Splitter.stl
    {
        type triSurfaceMesh;
        name Splitter_wall;
    }

    FloorBox
    {
        type searchableBox;
        min (-4.0 0.0 0.0);
        max (4.0 2.0 0.125);
    }

    RefinementBox1
    {
        type searchableBox;
        min (-1.0 0.0 0.0);
        max (0.25 1.5 0.75);
    }
*/    
}
// Settings for the castellatedMesh generation.
castellatedMeshControls
{
    // Refinement parameters
    // ~~~~~~~~~~~~~~~~~~~~~
    maxLocalCells  10000000;
    maxGlobalCells 100000000;
    minRefinementCells 10; //stock is 10
    maxLoadUnbalance 0.05; //stock is .10
    nCellsBetweenLevels 3; //stock is 3
    // Explicit feature edge refinement
    // Specifies a level for any cell intersected by its edges.
    features
    (
        
        {
            file "Wing.eMesh";
            level 8;
        }
/*
        {
            file "Endplate.eMesh";
            level 8;
        }

        {
            file "Splitter.eMesh";
            level 8;
        } 
*/               
    );
     refinementSurfaces

/*cellsize calc:
1 meter block

refine level 1= .5m
refine level 2= .25m
refine level 3= .125m
refine level 4= .0625m
refine level 5= .03125m
refine level 6= .015625m
refine level 7= .0078125m
refine level 8= .00390625m
refine level 9= .001953125m
refine level 10= .0009765625m

*/

    {

        Wing_wall
        {
            level (8 8); //this is the global refinement of the STL geo
            patchInfo
            {
                type wall;
                inGroups (carGroup);
            }                                 
        }
/*
        Endplate_wall
        {
            level (7 8); //this is the global refinement of the STL geo
            patchInfo
            {
                type wall;
                inGroups (carGroup);
            }                                 
        }

        Splitter_wall
        {
            level (7 8); //this is the global refinement of the STL geo
            patchInfo
            {
                type wall;
                inGroups (carGroup);
            }                                 
        } 
 */ 
    }                            
    // Resolve sharp angles
    resolveFeatureAngle 1; //30 is stock, lets try 1
    // Region-wise refinement
refinementRegions
    {
     
    }
/////////////////////////////////////////////////////////////////////////////////////////////////////
    // Mesh selection
    // ~~~~~~~~~~~~~~
    locationInMesh (2.9001 0.9001 0.43);
    allowFreeStandingZoneFaces false;
}

// Settings for the snapping.
snapControls
{
    nSmoothPatch 5; //3 is stock, 5 reccomended from Simscale
    tolerance 5.0; //2.0 is stock, 5 reccomended from Simscale
    nSolveIter 300; // 30 is stock 300 from wolf dynamics
    nRelaxIter 12; //simscale says 5-8
    nFeatureSnapIter 20; //10 is stock 20 from wolf
    implicitFeatureSnap false;
    explicitFeatureSnap true; //this will snap to the surface feature extract- 20% faster and give much better meshcheck results
    multiRegionFeatureSnap false; //stock is false/ adds 10% time creates a shit mess when connecting STLs
}

addLayersControls
{
    relativeSizes true;
    nSurfaceLayers 1;
    expansionRatio 1.0;
    finalLayerThickness 0.1;
    //firstLayerThickness 0.1;
    minThickness 0.0001;

    // Per final patch (so not geometry!) the layer information
    //https://en.wikipedia.org/wiki/Law_of_the_wall
    layers
    {
        "(carGroup).*"
        {
            nSurfaceLayers 10;
            expansionRatio 1.05;
            finalLayerThickness 0.5;
            //firstLayerThickness 0.1;
            minThickness 0.0001;
        }

    }
    nGrow 0;
    featureAngle 180; //180 is stock 130 from wolf try 1 from intel
    //slipFeatureAngle 75; //75 stock 30 from wolf
    nRelaxIter 10; //8 is stock 10 from wolf
    nSmoothSurfaceNormals 1; //1 is stock
    nSmoothNormals 10; //5 is stock, 10 from wolf
    nSmoothThickness 1;
    maxFaceThicknessRatio 0.5;
    maxThicknessToMedialRatio 0.3; //.35 stock .3 from wolf //1 from intel
    minMedianAxisAngle 90; //90 is stock
    minMedialAxisAngle 90; //90 is stock
    nBufferCellsNoExtrude 0;
    nLayerIter 50; //50 is stock //90 wolf
}

meshQualityControls
{
    #include "meshQualityDict"

        // Advanced

}

// Advanced

// Write flags
writeFlags
(
    scalarLevels
    layerSets
    layerFields     // write volScalarField for layer coverage
);

// Merge tolerance. Is fraction of overall bounding box of initial mesh.
// Note: the write tolerance needs to be higher than this.
mergeTolerance 1e-6;


// ************************************************************************* //
