/*--------------------------------*- C++ -*----------------------------------*\
  =========                 |
  \\      /  F ield         | OpenFOAM: The Open Source CFD Toolbox
   \\    /   O peration     | Website:  https://openfoam.org
    \\  /    A nd           | Version:  6
     \\/     M anipulation  |
\*---------------------------------------------------------------------------*/
FoamFile
{
    version     2.0;
    format      ascii;
    class       volScalarField;
    object      omega;
}
// * * * * * * * * * * * * * * * * * * * * * * * * * * * * * * * * * * * * * //

#include        "include/initialConditions"

dimensions      [0 0 -1 0 0 0 0];

internalField   uniform $turbulentOmega;

boundaryField
{
    //- Set patchGroups for constraint patches
    #includeEtc "caseDicts/setConstraintTypes"

    #include "include/fixedInlet"

    outlet
    {
        type            inletOutlet;
        inletValue      $internalField;
        value           $internalField;
    }

    lowerWall
    {
        type            omegaWallFunction;
        value           $internalField;
    }
    
    upperWall
    {
        type            zeroGradient;
    }

    tire_wall
    {
        type            omegaWallFunction;
        value           $internalField;
    }
    
    rim_wall
    {
        type            omegaWallFunction;
        value           $internalField;
    }

    plane_wall
    {
        type            omegaWallFunction;
        value           $internalField;
    }

    rad_wall
    {
        type            omegaWallFunction;
        value           $internalField;
    }

    symWall
    {
        type            symmetry;
    }
        
    left
    {
        type            zeroGradient;
    }
    //#include "include/frontBackUpperPatches"
}


// ************************************************************************* //
